Version 4
SHEET 1 880 680
WIRE 16 112 -48 112
WIRE 48 112 16 112
WIRE 240 112 128 112
WIRE 304 112 240 112
WIRE 416 112 384 112
WIRE -48 144 -48 112
WIRE -240 176 -304 176
WIRE -304 208 -304 176
WIRE -240 224 -240 176
WIRE 240 240 240 112
WIRE 304 240 240 240
WIRE 416 256 416 112
WIRE 416 256 368 256
WIRE 16 272 16 112
WIRE 32 272 16 272
WIRE 192 272 96 272
WIRE 304 272 192 272
WIRE 192 288 192 272
FLAG -48 224 0
FLAG 192 368 0
FLAG -304 208 0
FLAG -240 96 v+
FLAG -240 304 v-
FLAG 336 224 v+
FLAG 336 288 v-
SYMBOL res 32 128 R270
WINDOW 0 32 56 VTop 2
WINDOW 3 0 56 VBottom 2
SYMATTR InstName R1
SYMATTR Value 1k
SYMBOL res 288 128 R270
WINDOW 0 32 56 VTop 2
WINDOW 3 0 56 VBottom 2
SYMATTR InstName R2
SYMATTR Value 1k
SYMBOL res 176 272 R0
SYMATTR InstName R3
SYMATTR Value 1k
SYMBOL cap 96 256 R90
WINDOW 0 0 32 VBottom 2
WINDOW 3 32 32 VTop 2
SYMATTR InstName C1
SYMATTR Value 1µF
SYMBOL voltage -240 80 R0
SYMATTR InstName V1
SYMATTR Value 9
SYMBOL voltage -240 208 R0
SYMATTR InstName V2
SYMATTR Value 9
SYMBOL voltage -48 128 R0
WINDOW 3 -107 212 Left 2
WINDOW 123 -93 241 Left 2
WINDOW 39 0 0 Left 0
SYMATTR Value SINE(0 1m 1k 0 0 0 10)
SYMATTR Value2 AC 1 0
SYMATTR InstName V3
SYMBOL Opamps\\UniversalOpamp2 336 256 R0
SYMATTR InstName U1
TEXT -328 392 Left 2 !.ac dec 100 1 10meg
