Version 4
SHEET 1 2616 1448
WIRE -192 176 -416 176
WIRE 96 176 16 176
WIRE 368 176 288 176
WIRE 16 208 16 176
WIRE 16 208 -64 208
WIRE 288 208 288 176
WIRE 288 208 224 208
WIRE 528 208 496 208
WIRE -416 240 -416 176
FLAG -416 320 0
FLAG -416 176 vi
FLAG 528 208 vo
IOPIN 528 208 Out
SYMBOL voltage -416 224 R0
WINDOW 123 40 55 Left 2
WINDOW 39 0 0 Left 0
WINDOW 0 41 25 Left 2
SYMATTR Value2 AC 1 1
SYMATTR InstName V1
SYMATTR Value ""
SYMBOL ack_moss_bicuad -128 176 R0
WINDOW 0 -2 -34 Bottom 2
WINDOW 3 -23 35 Left 0
WINDOW 123 -26 47 Left 0
SYMATTR InstName S1
SYMATTR SpiceLine k=k1 Q=Q1 w0=w01 a = 0 c = 0 b = 0 d = k1/Q1
SYMATTR SpiceModel SOS
SYMBOL ack_moss_bicuad 160 176 R0
WINDOW 0 -4 -35 Bottom 2
WINDOW 3 -23 35 Left 0
WINDOW 123 -26 47 Left 0
SYMATTR InstName S2
SYMATTR SpiceLine k=k2 Q=Q2 w0=w02 wz=wz2 a = k2 b = 0 c= k2*(wz2/w02)**2 d = 0
SYMATTR SpiceModel SOS
SYMBOL ack_moss_bicuad 432 176 R0
WINDOW 0 3 -33 Bottom 2
WINDOW 3 -23 35 Left 0
WINDOW 123 -26 47 Left 0
SYMATTR InstName S3
SYMATTR SpiceLine k=k3 Q=Q3 w0=w03 wz=wz3 a = k3 b = 0 c= k3*(wz3/w03)**2 d = 0
SYMATTR SpiceModel SOS
TEXT -368 736 Left 2 !#.param wz=10e3 ww=2*pi*22000
TEXT -368 680 Left 3 ;Versión desnormalizada
TEXT -368 464 Left 2 !.ac dec 1000 {fmin/10} {fmax*10}
TEXT -368 568 Left 3 ;Versión normalizada
TEXT -368 616 Left 2 !.param znorm=1 wnorm=2*pi f0=wnorm/2/pi
TEXT -368 408 Left 3 ;Configuración de la simulación
TEXT 240 456 Left 2 !.param k1=6.525 Q1=5.005 w01=1.002*wnorm
TEXT 240 408 Left 2 ;SOS1 Bandpass parameters
TEXT 240 616 Left 2 ;SOS2 low-pass-notch parameters
TEXT 240 664 Left 2 !.param k3=0.1191 Q3=10.73 w03=1.088*wnorm wz3 = 1.5*wnorm
TEXT 240 560 Left 2 !.param k2=0.1751 Q2=10.32 w02=0.9121*wnorm wz2 = 0.5*wnorm
TEXT 240 512 Left 2 ;SOS2 high-pass-notch parameters
TEXT -368 512 Left 2 !.param fmin=wz2/2/pi fmax=wz3/2/pi
