Version 4
SHEET 1 2616 1448
WIRE -96 144 -224 144
WIRE -224 160 -224 144
WIRE -96 208 -96 144
WIRE -48 208 -96 208
WIRE 160 208 48 208
WIRE 224 208 160 208
WIRE 432 208 320 208
WIRE 480 208 432 208
WIRE 672 208 576 208
WIRE -224 240 -256 240
WIRE -48 272 -96 272
WIRE 224 272 48 272
WIRE 480 272 320 272
WIRE 672 272 576 272
WIRE -224 336 -224 320
WIRE -96 336 -96 272
WIRE -96 336 -224 336
FLAG -96 208 vi+
IOPIN -96 208 In
FLAG 672 208 vo+
IOPIN 672 208 Out
FLAG 160 208 vi2
FLAG 432 208 vi3
FLAG 672 272 vo-
IOPIN 672 272 Out
FLAG -96 272 vi+
IOPIN -96 272 In
FLAG -256 240 0
SYMBOL voltage -224 144 R0
WINDOW 123 -144 51 Left 2
WINDOW 39 0 0 Left 0
WINDOW 0 -71 23 Left 2
SYMATTR Value2 AC {1/2}
SYMATTR InstName V2
SYMATTR Value ""
SYMBOL voltage -224 224 R0
WINDOW 123 -152 63 Left 2
WINDOW 39 0 0 Left 0
WINDOW 0 -72 34 Left 2
SYMATTR Value2 AC {1/2}
SYMATTR InstName V3
SYMATTR Value ""
SYMBOL ack_moss_bicuad_diferencial 16 208 R0
SYMATTR InstName X1
SYMATTR SpiceLine k=k1 Q=Q1 w0=w01 a = 0 c = 0 b = 0 d = k1/Q1
SYMBOL ack_moss_bicuad_diferencial 288 208 R0
SYMATTR InstName X2
SYMATTR SpiceLine k=k2 Q=Q2 w0=w02 wz=wz2 a = k2 b = 0 c= k2*(wz2/w02)**2 d = 0
SYMBOL ack_moss_bicuad_diferencial 544 208 R0
SYMATTR InstName X3
SYMATTR SpiceLine k=k3 Q=Q3 w0=w03 wz=wz3 a = k3 b = 0 c= k3*(wz3/w03)**2 d = 0
TEXT -368 736 Left 2 !#.param wz=10e3 ww=2*pi*22000
TEXT -368 680 Left 3 ;Versión desnormalizada
TEXT -368 464 Left 2 !.ac dec 1000 {fmin/10} {fmax*10}
TEXT -368 568 Left 3 ;Versión normalizada
TEXT -368 616 Left 2 !.param znorm=1 wnorm=2*pi f0=wnorm/2/pi
TEXT -368 408 Left 3 ;Configuración de la simulación
TEXT 240 456 Left 2 !.param k1=6.525 Q1=5.005 w01=1.002*wnorm
TEXT 240 408 Left 2 ;SOS1 Bandpass parameters
TEXT 240 616 Left 2 ;SOS2 low-pass-notch parameters
TEXT 240 664 Left 2 !.param k3=0.1191 Q3=10.73 w03=1.088*wnorm wz3 = 1.5*wnorm
TEXT 240 560 Left 2 !.param k2=0.1751 Q2=10.32 w02=0.9121*wnorm wz2 = 0.5*wnorm
TEXT 240 512 Left 2 ;SOS2 high-pass-notch parameters
TEXT -368 512 Left 2 !.param fmin=wz2/2/pi fmax=wz3/2/pi
TEXT -56 0 Left 2 ;Bandpass
TEXT 208 0 Left 2 ;High-pass-notch
TEXT 488 0 Left 2 ;Low-pass-notch
TEXT -32 40 Left 1 ;k = 6.525\nw0 = 1.002\nQ = 5.005
TEXT 248 40 Left 1 ;k = 0.1751\nw0 = 0.9121\nQ = 10.32\nwz = 0.5
TEXT 536 32 Left 1 ;k = 0.21\nw0 = 1.09\nQ = 10.73\nwz = 1.5
