Version 4
SHEET 1 2616 1448
WIRE -160 304 -288 304
WIRE -288 320 -288 304
WIRE -160 368 -160 304
WIRE -112 368 -160 368
WIRE 96 368 -16 368
WIRE 160 368 96 368
WIRE 368 368 256 368
WIRE 416 368 368 368
WIRE 608 368 512 368
WIRE -288 400 -320 400
WIRE -112 432 -160 432
WIRE 160 432 -16 432
WIRE 416 432 256 432
WIRE 608 432 512 432
WIRE -288 496 -288 480
WIRE -160 496 -160 432
WIRE -160 496 -288 496
FLAG -160 368 vi+
IOPIN -160 368 In
FLAG 608 368 vo+
IOPIN 608 368 Out
FLAG 96 368 vi2
FLAG 368 368 vi3
FLAG 608 432 vo-
IOPIN 608 432 Out
FLAG -160 432 vi+
IOPIN -160 432 In
FLAG -320 400 0
SYMBOL GIC_bicuad_diferencial -32 400 R0
SYMATTR InstName X1
SYMATTR SpiceLine C0 = Cref k=k1 Q=Q1 w0=w01 c= 0 a = 0 b = k1/2
SYMBOL GIC_bicuad_diferencial 240 400 R0
SYMATTR InstName X2
SYMATTR SpiceLine C0 = Cref k=k2 Q=Q2 w0=w02 wz=wz2 c= c2 a = a2 b = b2
SYMBOL GIC_bicuad_diferencial 496 400 R0
SYMATTR InstName X3
SYMATTR SpiceLine C0 = Cref k=k3 Q=Q3 w0=w03 wz=wz3 c= c3 a = a3 b = b3
SYMBOL voltage -288 304 R0
WINDOW 123 -144 51 Left 2
WINDOW 39 0 0 Left 0
WINDOW 0 -71 23 Left 2
SYMATTR Value2 AC {1/2}
SYMATTR InstName V1
SYMATTR Value ""
SYMBOL voltage -288 384 R0
WINDOW 123 -152 63 Left 2
WINDOW 39 0 0 Left 0
WINDOW 0 -72 34 Left 2
SYMATTR Value2 AC {1/2}
SYMATTR InstName V2
SYMATTR Value ""
TEXT -1000 248 Left 2 !.param znorm=1 wnorm=2*pi*15.7k Cref = 1u Rref = 1
TEXT -1000 192 Left 3 ;Implementation
TEXT -1000 384 Left 2 !.ac dec 1000 {fmin/10} {fmax*10}
TEXT -1000 80 Left 3 ;Normalized
TEXT -1000 128 Left 2 !*.param znorm=1 wnorm=2*pi Cref = 1 Rref = 1
TEXT -1000 328 Left 3 ;Simulation config
TEXT -1000 568 Left 2 !.param k1=3.401 Q1=5.005 w01=1.002*wnorm
TEXT -1000 520 Left 2 ;SOS1 Bandpass parameters
TEXT -1000 728 Left 2 ;SOS2 low-pass-notch parameters
TEXT -1000 776 Left 2 !.param k3=0.2203 Q3=10.73 w03=1.088*wnorm wz3 = 1.5*wnorm c3= k3*(wz3/w03)**2 a3 = (k3+c3)/2 b3 = c3/2
TEXT -1000 672 Left 2 !.param k2=0.1777 Q2=10.32 w02=0.9121*wnorm wz2 = 0.5*wnorm c2= k2*(wz2/w02)**2 a2 = (k2+c2)/2 b2 = c2/2
TEXT -1000 624 Left 2 ;SOS2 high-pass-notch parameters
TEXT -1000 432 Left 2 !.param fmin=wz2/2/pi fmax=wz3/2/pi
TEXT -136 152 Left 2 ;Bandpass
TEXT 128 152 Left 2 ;High-pass-notch
TEXT 408 152 Left 2 ;Low-pass-notch
TEXT -112 192 Left 1 ;k = 3.46\nw0 = 1\nQ = 5
TEXT 168 192 Left 1 ;k = 0.18\nw0 = 0.91\nQ = 10.32\nwz = 0.5
TEXT 456 184 Left 1 ;k = 0.21\nw0 = 1.09\nQ = 10.73\nwz = 1.5
TEXT -992 864 Left 1 ;T(s) = \\\\frac{s\\\\,3.401\\\\,\\\\frac{1.002}{5.005}}{s^2 + s \\\\frac{1.002}{5.005} + 1.002^2} . \\\\frac{0.1777(s^2 + 0.5^2)}{s^2 + s \\\\frac{0.9121}{10.32} + 0.9121^2} . \\\\frac{0.2203(s^2 + 1.5^2)}{s^2 + s \\\\frac{1.088}{10.73} + 1.088^2}
TEXT -992 832 Left 2 ;Implemented transfer function LaTex
