Version 4
SHEET 1 2616 1448
WIRE -128 176 -144 176
WIRE -16 176 -48 176
WIRE -144 272 -144 176
WIRE -128 272 -144 272
WIRE -16 272 -16 176
WIRE -16 272 -64 272
WIRE -256 352 -400 352
WIRE -144 352 -144 272
WIRE -144 352 -176 352
WIRE -112 352 -144 352
WIRE -16 368 -16 272
WIRE -16 368 -48 368
WIRE 32 368 -16 368
WIRE 96 368 32 368
WIRE 352 368 304 368
WIRE -112 384 -144 384
WIRE 304 400 304 368
WIRE 304 400 224 400
WIRE 544 400 480 400
WIRE -144 416 -144 384
WIRE -400 432 -400 352
FLAG -400 512 0
FLAG -400 352 vi
FLAG 544 400 vo
IOPIN 544 400 Out
FLAG 32 368 vi2
FLAG 304 368 vi3
FLAG -144 416 0
SYMBOL voltage -400 416 R0
WINDOW 123 40 55 Left 2
WINDOW 39 0 0 Left 0
WINDOW 0 41 25 Left 2
SYMATTR Value2 AC 1 1
SYMATTR InstName V1
SYMATTR Value ""
SYMBOL ack_moss_bicuad 160 368 R0
SYMATTR InstName X1
SYMATTR SpiceLine C0 = Cref k=k2 Q=Q2 w0=w02 wz=wz2 c= c2 a = a2 b = b2 d=d2
SYMBOL ack_moss_bicuad 416 368 R0
SYMATTR InstName X2
SYMATTR SpiceLine C0 = Cref k=k3 Q=Q3 w0=w03 wz=wz3 c= c3 a = a3 b = b3 d=d3
SYMBOL OpAmps\\opamp -80 304 R0
SYMATTR InstName U1
SYMBOL res -160 336 R90
WINDOW 0 0 56 VBottom 2
WINDOW 3 32 56 VTop 2
SYMATTR InstName R1
SYMATTR Value {R1}
SYMBOL res -32 160 R90
WINDOW 0 0 56 VBottom 2
WINDOW 3 32 56 VTop 2
SYMATTR InstName R2
SYMATTR Value {R2}
SYMBOL cap -64 256 R90
WINDOW 0 0 32 VBottom 2
WINDOW 3 32 32 VTop 2
SYMATTR InstName C1
SYMATTR Value {Cref}
TEXT -1000 192 Left 2 !.param znorm=1 wnorm=2*pi*1k Cref = .01u Rref = 1
TEXT -1000 136 Left 3 ;Implementation version
TEXT -1000 328 Left 2 !.ac dec 1000 {fmin/10} {fmax*10}
TEXT -1000 24 Left 3 ;Normalized version
TEXT -1000 72 Left 2 !*.param znorm=1 wnorm=2*pi Cref = 1 Rref = 1
TEXT -1000 272 Left 3 ;Simulation config
TEXT -1000 616 Left 2 !.param k1=4.73 w01=16.8*wnorm R1 = 1/(k1*w01*Cref) R2 = 1/(w01*Cref)
TEXT -1000 568 Left 2 ;Lowpass parameters
TEXT -1000 776 Left 2 ;SOS2 low-pass-notch parameters
TEXT -1000 824 Left 2 !.param k3=0.5948 Q3=4.771 w03=22.52*wnorm wz3 = 29.2*wnorm a3 = k3 b3 = 0 c3= k3*(wz3/w03)**2 d3 = 0
TEXT -1000 720 Left 2 !.param k2=0.2145 Q2=1.031 w02=20.01*wnorm wz2 = 43.2*wnorm a2 = k2 b2 = 0 c2= k2*(wz2/w02)**2 d2 = 0
TEXT -1000 672 Left 2 ;SOS2 high-pass-notch parameters
TEXT -1000 376 Left 2 !.param fmin=wz2/2/pi fmax=wz3/2/pi
TEXT -152 0 Left 2 ;Lowpass
TEXT 328 0 Left 2 ;Lowpass-notch
TEXT -128 40 Left 1 ;k = 3.46\nw0 = 1
TEXT 120 40 Left 1 ;k = 0.21\nw0 = 20\nQ = 1\nwz = 43.2
TEXT 376 32 Left 1 ;k = 0.59\nw0 = 22.5\nQ = 4.77\nwz = 29.2
TEXT 80 0 Left 2 ;Lowpass-notch
TEXT -1000 416 Left 2 !.inc opamp.sub
TEXT -1000 912 Left 1 ;T(s) = \\\\frac{79.49 }{s + 16.8 } . \\\\frac{0.2145(s^2 + 43.2^2)}{s^2 + s \\\\frac{20.01}{1.031} + 20.01^2} . \\\\frac{0.5948(s^2 + 29.2^2)}{s^2 + s \\\\frac{22.52}{4.771} + 22.52^2}
TEXT -1000 880 Left 2 ;Implemented transfer function LaTex
