Version 4
SHEET 1 920 680
WIRE 480 -16 112 -16
WIRE 608 0 544 0
WIRE 704 0 608 0
WIRE 480 16 416 16
WIRE -320 176 -512 176
WIRE -192 176 -320 176
WIRE -144 176 -192 176
WIRE -16 176 -80 176
WIRE 112 176 112 -16
WIRE 112 176 -16 176
WIRE 160 176 112 176
WIRE 256 176 240 176
WIRE 320 176 256 176
WIRE 416 176 416 16
WIRE 416 176 384 176
WIRE 464 176 416 176
WIRE 608 176 608 0
WIRE 608 176 544 176
WIRE 656 176 608 176
WIRE 768 176 736 176
WIRE 832 176 768 176
WIRE 832 224 832 176
WIRE -16 240 -16 176
WIRE -512 288 -512 176
WIRE 416 304 416 176
WIRE 416 304 384 304
WIRE 256 320 256 176
WIRE 320 320 256 320
WIRE 768 336 768 176
WIRE 768 336 384 336
WIRE -16 400 -16 320
WIRE -512 416 -512 368
WIRE -192 448 -192 176
WIRE 832 448 832 304
WIRE 832 448 -192 448
WIRE 0 0 0 0
FLAG -512 416 0
FLAG -320 176 vi
IOPIN -320 176 In
FLAG -16 400 0
FLAG 704 0 Vo
IOPIN 704 0 Out
SYMBOL res 144 192 R270
WINDOW 0 32 56 Invisible 2
WINDOW 3 0 56 VBottom 2
SYMATTR InstName R1
SYMBOL res 448 192 R270
WINDOW 0 32 56 Invisible 2
WINDOW 3 0 56 VBottom 2
SYMATTR InstName R3
SYMBOL res 640 192 R270
WINDOW 0 32 56 Invisible 2
WINDOW 3 0 56 VBottom 2
SYMATTR InstName R4
SYMBOL res 816 208 R0
WINDOW 0 36 40 Invisible 2
SYMATTR InstName R5
SYMBOL cap 320 192 R270
WINDOW 0 32 32 Invisible 2
WINDOW 3 0 32 VBottom 2
SYMATTR InstName C2
SYMBOL OpAmps\\opamp 512 64 M180
SYMATTR InstName U1
SYMBOL OpAmps\\opamp 352 256 M0
SYMATTR InstName U2
SYMBOL voltage -512 272 R0
WINDOW 123 40 55 Left 2
WINDOW 39 0 0 Left 0
WINDOW 0 41 25 Left 2
SYMATTR Value2 AC 1 1
SYMATTR InstName V1
SYMATTR Value ""
SYMBOL res -32 224 R0
WINDOW 0 34 80 Invisible 2
WINDOW 3 -63 65 Left 2
SYMATTR InstName Rc
SYMATTR Value Q*R
SYMBOL cap -80 160 R90
WINDOW 0 0 32 Invisible 2
WINDOW 3 32 32 VTop 2
SYMATTR InstName C1
TEXT -296 -192 Left 2 !.ac dec 1000 0.01 100
TEXT -24 -192 Left 2 !.inc opamp.sub
TEXT -352 560 Left 2 !.param R 1
