Version 4
SHEET 1 2616 808
WIRE 16 -80 -48 -80
WIRE 480 -16 112 -16
WIRE 608 0 544 0
WIRE 480 16 416 16
WIRE -160 176 -352 176
WIRE -48 176 -48 -80
WIRE -48 176 -80 176
WIRE -16 176 -48 176
WIRE 112 176 112 -16
WIRE 112 176 48 176
WIRE 160 176 112 176
WIRE 256 176 240 176
WIRE 320 176 256 176
WIRE 416 176 416 16
WIRE 416 176 384 176
WIRE 464 176 416 176
WIRE 608 176 608 0
WIRE 608 176 544 176
WIRE 656 176 608 176
WIRE 768 176 736 176
WIRE 832 176 768 176
WIRE 832 224 832 176
WIRE -352 240 -352 176
WIRE 416 304 416 176
WIRE 416 304 384 304
WIRE 256 320 256 176
WIRE 320 320 256 320
WIRE 768 336 768 176
WIRE 768 336 384 336
WIRE 832 384 832 304
FLAG 832 384 0
FLAG -352 320 0
FLAG -352 176 vi
FLAG 16 -80 vo1
IOPIN 16 -80 Out
SYMBOL res -64 160 R90
WINDOW 0 0 56 VBottom 2
WINDOW 3 32 56 VTop 2
SYMATTR InstName R1
SYMATTR Value {R}
SYMBOL res 144 192 R270
WINDOW 0 32 56 VTop 2
WINDOW 3 0 56 VBottom 2
SYMATTR InstName RG1
SYMATTR Value {R}
SYMBOL res 448 192 R270
WINDOW 0 32 56 VTop 2
WINDOW 3 0 56 VBottom 2
SYMATTR InstName RG3
SYMATTR Value {R}
SYMBOL res 640 192 R270
WINDOW 0 32 56 VTop 2
WINDOW 3 0 56 VBottom 2
SYMATTR InstName RG4
SYMATTR Value {R}
SYMBOL res 816 208 R0
SYMATTR InstName RG5
SYMATTR Value {R}
SYMBOL cap -16 192 R270
WINDOW 0 32 32 VTop 2
WINDOW 3 0 32 VBottom 2
SYMATTR InstName C1
SYMATTR Value {C1}
SYMBOL cap 320 192 R270
WINDOW 0 32 32 VTop 2
WINDOW 3 0 32 VBottom 2
SYMATTR InstName CG2
SYMATTR Value {CG21}
SYMBOL OpAmps\\opamp 512 64 M180
SYMATTR InstName U1
SYMBOL OpAmps\\opamp 352 256 M0
SYMATTR InstName U2
SYMBOL voltage -352 224 R0
WINDOW 123 40 55 Left 2
WINDOW 39 0 0 Left 0
WINDOW 0 41 25 Left 2
SYMATTR Value2 AC 1 1
SYMATTR InstName V1
SYMATTR Value ""
TEXT -168 528 Left 2 !.inc opamp.sub
TEXT -160 568 Left 2 !.ac dec 100 {ww/2/pi/10} {ww/2/pi*10}
TEXT 440 584 Left 2 !.param k1=1 Q1=4.737 wo1=ww
TEXT -160 792 Left 2 !.param wz=10e3 ww=2*pi*50
TEXT -168 632 Left 3 ;Versión normalizada
TEXT -160 736 Left 3 ;Versión desnormalizada
TEXT 440 624 Left 2 !.param C1={1/R/wo1/Q1} R1={R} CG21={Q1/R/wo1}
TEXT -160 688 Left 2 !#.param wz=1 ww=1
TEXT 440 480 Left 2 !.param R=wz
TEXT -168 480 Left 3 ;Configuración de la simulación
TEXT 1136 488 Left 2 ;Atenuador
TEXT 1136 536 Left 2 !.param a=k1/2
