Version 4
SHEET 1 2616 808
WIRE -192 112 -224 112
WIRE -96 112 -128 112
WIRE -224 176 -224 112
WIRE -224 176 -352 176
WIRE -96 176 -96 112
WIRE 0 176 -96 176
WIRE 272 176 0 176
WIRE -224 208 -224 176
WIRE -192 208 -224 208
WIRE -96 208 -96 176
WIRE -96 208 -112 208
WIRE -352 240 -352 176
WIRE 0 272 0 176
WIRE 0 432 0 352
FLAG -352 320 0
FLAG -352 176 vi
FLAG 272 176 vo
IOPIN 272 176 Out
FLAG 0 432 0
SYMBOL res 16 368 R180
WINDOW 0 36 76 Left 2
WINDOW 3 36 40 Left 2
SYMATTR InstName R1
SYMATTR Value {R}
SYMBOL cap -128 96 R90
WINDOW 0 0 32 VBottom 2
WINDOW 3 32 32 VTop 2
SYMATTR InstName C1
SYMATTR Value {C}
SYMBOL voltage -352 224 R0
WINDOW 123 40 55 Left 2
WINDOW 39 0 0 Left 0
WINDOW 0 41 25 Left 2
SYMATTR Value2 AC 1 1
SYMATTR InstName V1
SYMATTR Value ""
SYMBOL ind -96 192 R90
WINDOW 0 5 56 VBottom 2
WINDOW 3 32 56 VTop 2
SYMATTR InstName L1
SYMATTR Value {L}
TEXT -600 456 Left 2 !.ac dec 1000 {w0/2/pi/10} {w0/2/pi*10}
TEXT 96 528 Left 2 !#.param wz=600 w0=2*pi*50 BW=2*pi*5/w0
TEXT 88 352 Left 3 ;Versión normalizada
TEXT 88 440 Left 3 ;Versión desnormalizada
TEXT 96 392 Left 2 !.param wz=1 w0=1 BW=.1
TEXT -608 408 Left 3 ;Configuración de la simulación
TEXT -608 600 Left 2 !.param R=wz C=Q/w0/wz L=wz/Q/w0
TEXT -608 568 Left 2 !.param Q=1/BW
TEXT -608 528 Left 3 ;Parámetros de la Red
TEXT 96 480 Left 2 !#.param wz=1 w0=1*2*pi BW=2*pi*.1/w0
TEXT -408 568 Left 1 ;(normalizado)
TEXT 424 392 Left 1 ;¿verifica?
TEXT 584 480 Left 1 ;más fácil de verificar
