Version 4
SHEET 1 2616 808
WIRE -160 176 -352 176
WIRE 0 176 -80 176
WIRE 272 176 0 176
WIRE 0 224 0 176
WIRE -352 240 -352 176
WIRE 0 320 0 288
WIRE 0 432 0 400
FLAG -352 320 0
FLAG -352 176 vi
FLAG 272 176 vo
IOPIN 272 176 Out
FLAG 0 432 0
SYMBOL res -64 160 R90
WINDOW 0 0 56 VBottom 2
WINDOW 3 32 56 VTop 2
SYMATTR InstName R1
SYMATTR Value {R}
SYMBOL cap -16 224 R0
SYMATTR InstName C1
SYMATTR Value {C}
SYMBOL voltage -352 224 R0
WINDOW 123 40 55 Left 2
WINDOW 39 0 0 Left 0
WINDOW 0 41 25 Left 2
SYMATTR Value2 AC 1 1
SYMATTR InstName V1
SYMATTR Value ""
SYMBOL ind -16 304 R0
SYMATTR InstName L1
SYMATTR Value {L}
TEXT -632 528 Left 2 !.inc opamp.sub
TEXT -624 568 Left 2 !.ac dec 100 {ww/2/pi/10} {ww/2/pi*10}
TEXT -112 600 Left 2 !.param wz=600 ww=2*pi*50
TEXT -112 472 Left 3 ;Versión normalizada
TEXT -112 560 Left 3 ;Versión desnormalizada
TEXT -112 512 Left 2 !#.param wz=1 ww=1
TEXT -632 480 Left 3 ;Configuración de la simulación
TEXT -624 648 Left 2 !.param R=wz C=1/Q/ww/wz L=wz*Q/ww Q=9.744
