Version 4
SHEET 1 944 880
WIRE 160 64 -96 64
WIRE 560 64 400 64
WIRE -96 80 -96 64
WIRE 160 128 160 64
WIRE 240 128 160 128
WIRE 352 128 320 128
WIRE 400 128 400 64
WIRE 400 128 352 128
WIRE 560 144 560 64
WIRE 560 144 528 144
WIRE -96 160 -160 160
WIRE 560 192 528 192
WIRE 240 224 160 224
WIRE 352 224 320 224
WIRE 400 224 352 224
WIRE -96 272 -96 240
WIRE 160 272 160 224
WIRE 160 272 -96 272
WIRE 400 272 400 224
WIRE 560 272 560 192
WIRE 560 272 400 272
FLAG 160 128 vi+
IOPIN 160 128 In
FLAG 352 128 vo+
IOPIN 352 128 Out
FLAG 160 224 vi-
IOPIN 160 224 In
FLAG -160 160 0
FLAG 352 224 vo-
IOPIN 352 224 Out
SYMBOL res 224 144 R270
WINDOW 0 32 56 VTop 2
WINDOW 3 0 56 VBottom 2
SYMATTR InstName R1
SYMATTR Value {R/2}
SYMBOL voltage -96 64 R0
WINDOW 123 40 55 Left 2
WINDOW 39 0 0 Left 0
WINDOW 0 41 25 Left 2
SYMATTR Value2 AC {vi1/2}
SYMATTR InstName V1
SYMATTR Value ""
SYMBOL OTA_diff 480 176 R0
WINDOW 0 -23 -27 Top 2
WINDOW 39 12 -163 Top 2
SYMATTR InstName X2
SYMATTR SpiceLine gm = {1/R}
SYMBOL voltage -96 144 R0
WINDOW 123 40 55 Left 2
WINDOW 39 0 0 Left 0
WINDOW 0 41 25 Left 2
SYMATTR Value2 AC {vi1/2}
SYMATTR InstName V2
SYMATTR Value ""
SYMBOL res 224 240 R270
WINDOW 0 32 56 VTop 2
WINDOW 3 0 56 VBottom 2
SYMATTR InstName R2
SYMATTR Value {R/2}
TEXT 0 360 Left 2 !.ac dec 1000 {f0/100} {f0*100}
TEXT 520 424 Left 2 !.param R=1 vi1 = 1
TEXT -8 320 Left 3 ;Configuración de la simulación
TEXT 520 320 Left 3 ;Versión normalizada
TEXT 520 368 Left 2 !.param w0=1 f0=w0/2/pi
TEXT 88 -40 Left 3 ;Resistor diferencial
