Version 4
SHEET 1 956 880
WIRE 416 -16 352 -16
WIRE 624 32 544 32
WIRE 112 128 48 128
WIRE 240 128 112 128
WIRE 352 128 352 -16
WIRE 352 128 320 128
WIRE 416 128 352 128
WIRE 624 128 624 32
WIRE 704 128 624 128
WIRE 112 176 112 128
WIRE 624 176 624 128
WIRE 624 176 544 176
FLAG 112 256 0
FLAG 48 128 vi
IOPIN 48 128 In
FLAG 416 224 0
FLAG 544 -64 0
FLAG 704 192 0
SYMBOL voltage 112 160 R0
WINDOW 123 40 55 Left 2
WINDOW 39 0 0 Left 0
WINDOW 0 41 25 Left 2
SYMATTR Value2 AC 1
SYMATTR InstName V1
SYMATTR Value ""
SYMBOL OTA 496 176 R0
WINDOW 39 -19 94 Bottom 2
SYMATTR SpiceLine gm={1/R}
SYMATTR InstName X1
SYMBOL OTA 464 -16 M0
WINDOW 39 -19 94 Bottom 2
SYMATTR SpiceLine gm={1/R}
SYMATTR InstName X2
SYMBOL cap 688 128 R0
SYMATTR InstName C1
SYMATTR Value {co}
SYMBOL res 336 112 R90
WINDOW 0 0 56 VBottom 2
WINDOW 3 32 56 VTop 2
SYMATTR InstName R1
SYMATTR Value {R}
TEXT 8 440 Left 2 !.ac dec 1000 {f0/100} {f0*100}
TEXT 528 504 Left 2 !.param R=1 co=1
TEXT 0 400 Left 3 ;Configuración de la simulación
TEXT 528 400 Left 3 ;Versión normalizada
TEXT 528 448 Left 2 !.param w0=1 f0=w0/2/pi
TEXT 200 -160 Left 3 ;Girador aterrizado con OTA
