Version 4
SHEET 1 1244 880
WIRE 272 -96 192 -96
WIRE 400 -96 320 -96
WIRE 752 -80 672 -80
WIRE 544 -64 512 -64
WIRE 272 -48 272 -96
WIRE 320 -48 320 -96
WIRE 544 -16 528 -16
WIRE 64 16 -192 16
WIRE 720 16 672 16
WIRE -192 32 -192 16
WIRE 64 80 64 16
WIRE 192 80 192 -96
WIRE 192 80 64 80
WIRE 256 80 192 80
WIRE 400 80 400 -96
WIRE 400 80 352 80
WIRE 480 80 400 80
WIRE 528 80 528 -16
WIRE 528 80 480 80
WIRE 544 80 528 80
WIRE 752 96 752 -80
WIRE 752 96 672 96
WIRE 784 96 752 96
WIRE 864 96 784 96
WIRE -192 112 -256 112
WIRE 784 112 784 96
WIRE 192 176 64 176
WIRE 256 176 192 176
WIRE 400 176 352 176
WIRE 480 176 400 176
WIRE 512 176 512 -64
WIRE 512 176 480 176
WIRE 544 176 512 176
WIRE 672 192 672 144
WIRE 720 192 720 16
WIRE 720 192 672 192
WIRE 784 192 784 176
WIRE 784 192 720 192
WIRE 864 192 784 192
WIRE -192 224 -192 192
WIRE 64 224 64 176
WIRE 64 224 -192 224
WIRE 192 352 192 176
WIRE 272 352 272 304
WIRE 272 352 192 352
WIRE 320 352 320 304
WIRE 400 352 400 176
WIRE 400 352 320 352
FLAG 64 80 vi+
IOPIN 64 80 In
FLAG 480 80 vo+
IOPIN 480 80 Out
FLAG 64 176 vi-
IOPIN 64 176 In
FLAG -256 112 0
FLAG 480 176 vo-
IOPIN 480 176 Out
FLAG 864 96 va+
FLAG 864 192 va-
SYMBOL voltage -192 16 R0
WINDOW 123 40 55 Left 2
WINDOW 39 0 0 Left 0
WINDOW 0 41 25 Left 2
SYMATTR Value2 AC {vi1/2}
SYMATTR InstName V2
SYMATTR Value ""
SYMBOL voltage -192 96 R0
WINDOW 123 40 55 Left 2
WINDOW 39 0 0 Left 0
WINDOW 0 41 25 Left 2
SYMATTR Value2 AC {vi1/2}
SYMATTR InstName V3
SYMATTR Value ""
SYMBOL OTA_diff 624 128 R0
WINDOW 0 -23 -27 Top 2
WINDOW 39 -18 76 Top 2
SYMATTR InstName X1
SYMATTR SpiceLine gm = {1/R}
SYMBOL OTA_diff 592 -32 M0
WINDOW 0 -23 -27 Top 2
WINDOW 39 -23 -130 Top 2
SYMATTR InstName X2
SYMATTR SpiceLine gm = {1/R}
SYMBOL cap 768 112 R0
WINDOW 0 35 16 Left 2
SYMATTR InstName C2
SYMATTR Value {2*co}
SYMBOL OTA_diff 304 0 R270
WINDOW 0 -12 -9 VTop 2
WINDOW 39 -42 -7 VTop 2
SYMATTR InstName X3
SYMATTR SpiceLine gm = {1/R}
SYMBOL OTA_diff 304 256 M90
WINDOW 0 -12 -9 VTop 2
WINDOW 39 -42 -7 VTop 2
SYMATTR InstName X4
SYMATTR SpiceLine gm = {1/R}
TEXT 8 440 Left 2 !.ac dec 1000 {f0/100} {f0*100}
TEXT 0 400 Left 3 ;Configuración de la simulación
TEXT 528 400 Left 3 ;Versión normalizada
TEXT 528 448 Left 2 !.param w0=1*wnorm  f0=w0/2/pi
TEXT 168 -240 Left 3 ;Girador aterrizado diferencial
TEXT 528 496 Left 2 !.param R=1*znorm co=1/znorm/wnorm vi1=1
TEXT 528 536 Left 2 !.param wnorm = 2*pi*1 znorm = 1
