Version 4
SHEET 1 944 880
WIRE 304 -32 224 -32
WIRE 432 -32 352 -32
WIRE 304 0 304 -32
WIRE 352 0 352 -32
WIRE 176 128 160 128
WIRE 224 128 224 -32
WIRE 224 128 176 128
WIRE 288 128 224 128
WIRE 432 128 384 128
WIRE 432 128 432 -32
WIRE 512 128 432 128
WIRE 544 128 512 128
WIRE 544 160 544 128
WIRE 176 176 176 128
FLAG 176 256 0
FLAG 160 128 vi
IOPIN 160 128 In
FLAG 544 240 0
FLAG 512 128 va
SYMBOL res 560 256 R180
WINDOW 0 36 76 Left 2
WINDOW 3 36 40 Left 2
SYMATTR InstName R1
SYMATTR Value {R}
SYMBOL voltage 176 160 R0
WINDOW 123 40 55 Left 2
WINDOW 39 0 0 Left 0
WINDOW 0 41 25 Left 2
SYMATTR Value2 AC 1
SYMATTR InstName V1
SYMATTR Value ""
SYMBOL OTA_diff 336 48 R270
WINDOW 0 -12 -9 VTop 2
WINDOW 39 -42 -7 VTop 2
SYMATTR InstName X2
SYMATTR SpiceLine gm = {1/R}
TEXT 0 360 Left 2 !.ac dec 1000 {f0/100} {f0*100}
TEXT 520 424 Left 2 !.param R=3
TEXT -8 320 Left 3 ;Configuración de la simulación
TEXT 520 320 Left 3 ;Versión normalizada
TEXT 520 368 Left 2 !.param w0=1 f0=w0/2/pi
TEXT 96 -144 Left 3 ;Resistor flotante simulado con OTA
