Version 4.1
SHEET 1 1188 880
WIRE 352 -16 128 -16
WIRE 416 -16 352 -16
WIRE -176 32 -240 32
WIRE -32 32 -176 32
WIRE 624 32 544 32
WIRE -176 80 -176 32
WIRE 128 80 128 -16
WIRE 128 80 96 80
WIRE 176 80 128 80
WIRE 352 128 352 -16
WIRE 352 128 304 128
WIRE 416 128 352 128
WIRE 624 128 624 32
WIRE 656 128 624 128
WIRE 704 128 656 128
WIRE 624 176 624 128
WIRE 624 176 544 176
WIRE 352 192 352 128
FLAG -176 160 0
FLAG -240 32 vi
IOPIN -240 32 In
FLAG 416 224 0
FLAG 544 -64 0
FLAG 704 192 0
FLAG 656 128 va
IOPIN 656 128 Out
FLAG -32 128 0
FLAG 176 176 0
FLAG 352 256 0
FLAG 352 -16 Vb
IOPIN 352 -16 Out
SYMBOL voltage -176 64 R0
WINDOW 123 40 55 Left 2
WINDOW 39 0 0 Left 0
WINDOW 0 41 25 Left 2
SYMATTR Value2 AC 1
SYMATTR InstName V1
SYMATTR Value ""
SYMBOL OTA 48 80 R0
WINDOW 39 -19 94 Bottom 2
SYMATTR SpiceLine gm={gm1}
SYMATTR InstName X1
SYMBOL OTA 256 128 R0
WINDOW 39 -19 94 Bottom 2
SYMATTR SpiceLine gm = {gm2}
SYMATTR InstName X2
SYMBOL cap 688 128 R0
WINDOW 0 46 8 Left 2
WINDOW 3 45 43 Left 2
SYMATTR InstName C2
SYMATTR Value {co}
SYMBOL OTA 496 176 R0
WINDOW 39 -19 94 Bottom 2
SYMATTR SpiceLine gm = {gm3}
SYMATTR InstName X3
SYMBOL OTA 464 -16 M0
WINDOW 39 -19 94 Bottom 2
SYMATTR SpiceLine gm = {gm3}
SYMATTR InstName X4
SYMBOL cap 336 192 R0
WINDOW 0 -43 51 Left 2
WINDOW 3 -49 74 Left 2
SYMATTR InstName C1
SYMATTR Value {co}
TEXT -176 376 Left 2 !.ac dec 1000 {f0/100} {f0*100}
TEXT 352 528 Left 2 !.param k =1  Q = sqrt(2)/2 w0 = 1*wnorm
TEXT -184 336 Left 3 ;Configuración de la simulación
TEXT 344 336 Left 3 ;Versión normalizada
TEXT 344 384 Left 2 !.param f0=w0/2/pi
TEXT 32 -144 Left 3 ;Pasabajo de 2do orden con OTA
TEXT 344 432 Left 2 !.param gm1=k*gm3 gm3=co*w0 gm2=gm3/Q co=1/znorm/wnorm
TEXT 352 480 Left 2 !.param wnorm = 2*pi*1 znorm = 100
TEXT 656 64 Left 2 ;Va: Salida LP
TEXT 256 -96 Left 2 ;Vb: Salida BP
