Version 4
SHEET 1 956 880
WIRE 752 32 576 32
WIRE 224 128 160 128
WIRE 320 128 224 128
WIRE 480 128 400 128
WIRE 576 128 576 32
WIRE 576 128 480 128
WIRE 624 128 576 128
WIRE 480 144 480 128
WIRE 224 176 224 128
WIRE 752 176 752 32
FLAG 224 256 0
FLAG 160 128 vi
IOPIN 160 128 In
FLAG 624 224 0
FLAG 480 128 va
FLAG 480 224 0
SYMBOL res 416 112 R90
WINDOW 0 0 56 VBottom 2
WINDOW 3 32 56 VTop 2
SYMATTR InstName R1
SYMATTR Value {R}
SYMBOL voltage 224 160 R0
WINDOW 123 40 55 Left 2
WINDOW 39 0 0 Left 0
WINDOW 0 41 25 Left 2
SYMATTR Value2 AC 1
SYMATTR InstName V1
SYMATTR Value ""
SYMBOL OTA 704 176 M180
WINDOW 39 74 -46 Bottom 2
WINDOW 0 -21 14 Bottom 2
SYMATTR SpiceLine gm={1/R}
SYMATTR InstName X1
SYMBOL res 464 128 R0
SYMATTR InstName R2
SYMATTR Value {R/2}
TEXT 0 360 Left 2 !.ac dec 1000 {f0/100} {f0*100}
TEXT 520 424 Left 2 !.param R=3
TEXT -8 320 Left 3 ;Configuración de la simulación
TEXT 520 320 Left 3 ;Versión normalizada
TEXT 520 368 Left 2 !.param w0=1 f0=w0/2/pi
TEXT 200 0 Left 3 ;Resistor negativo aterrizado
