Version 4
SHEET 1 1188 880
WIRE 416 -16 352 -16
WIRE 1072 -16 1008 -16
WIRE 624 32 544 32
WIRE 880 32 800 32
WIRE 208 128 144 128
WIRE 352 128 352 -16
WIRE 352 128 208 128
WIRE 416 128 352 128
WIRE 624 128 624 32
WIRE 704 128 624 128
WIRE 800 128 800 32
WIRE 800 128 704 128
WIRE 1072 128 1072 -16
WIRE 1072 128 1008 128
WIRE 1136 128 1072 128
WIRE 1168 128 1136 128
WIRE 208 176 208 128
WIRE 624 176 624 128
WIRE 624 176 544 176
WIRE 800 176 800 128
WIRE 880 176 800 176
WIRE 1168 192 1168 128
FLAG 208 256 0
FLAG 144 128 vi
IOPIN 144 128 In
FLAG 416 224 0
FLAG 544 -64 0
FLAG 704 192 0
FLAG 1008 224 0
FLAG 880 -64 0
FLAG 1168 272 0
FLAG 1136 128 va
SYMBOL voltage 208 160 R0
WINDOW 123 40 55 Left 2
WINDOW 39 0 0 Left 0
WINDOW 0 41 25 Left 2
SYMATTR Value2 AC 1
SYMATTR InstName V1
SYMATTR Value ""
SYMBOL OTA 496 176 R0
WINDOW 39 -19 94 Bottom 2
SYMATTR SpiceLine gm={1/R}
SYMATTR InstName X1
SYMBOL OTA 464 -16 M0
WINDOW 39 -19 94 Bottom 2
SYMATTR SpiceLine gm={1/R}
SYMATTR InstName X2
SYMBOL cap 688 128 R0
SYMATTR InstName C1
SYMATTR Value {co}
SYMBOL res 1184 288 R180
WINDOW 0 36 76 Left 2
WINDOW 3 36 40 Left 2
SYMATTR InstName R1
SYMATTR Value {R}
SYMBOL OTA 928 176 M0
WINDOW 39 -19 94 Bottom 2
SYMATTR SpiceLine gm={1/R}
SYMATTR InstName X3
SYMBOL OTA 960 -16 R0
WINDOW 39 -19 94 Bottom 2
SYMATTR SpiceLine gm={1/R}
SYMATTR InstName X4
TEXT 8 440 Left 2 !.ac dec 1000 {f0/100} {f0*100}
TEXT 528 504 Left 2 !.param R=1 co=1
TEXT 0 400 Left 3 ;Configuración de la simulación
TEXT 528 400 Left 3 ;Versión normalizada
TEXT 528 448 Left 2 !.param w0=1 f0=w0/2/pi
TEXT 480 -152 Left 3 ;Girador flotante con OTA
