Version 4
SHEET 1 880 680
WIRE 576 32 576 0
WIRE 176 128 176 64
WIRE 576 160 576 112
WIRE 688 160 576 160
WIRE 688 192 688 160
WIRE 576 224 576 160
WIRE -16 304 -80 304
WIRE 80 304 80 64
WIRE 176 336 176 208
WIRE 224 368 208 368
WIRE 576 368 576 304
WIRE -16 432 -288 432
WIRE 224 432 224 368
WIRE 256 432 224 432
WIRE 368 432 336 432
WIRE 480 432 368 432
WIRE 368 448 368 432
WIRE -288 464 -288 432
WIRE 480 464 480 432
WIRE 80 512 80 432
WIRE 368 560 368 528
WIRE 480 560 480 528
WIRE -288 576 -288 544
FLAG 176 64 Vcc
FLAG 80 64 Vcc
FLAG -80 304 0
FLAG 80 512 Vss
FLAG -288 576 0
FLAG 688 192 0
FLAG 576 0 Vcc
FLAG 576 368 Vss
FLAG 368 560 0
FLAG 480 560 0
FLAG 480 432 Vo
FLAG -288 432 Vi
SYMBOL LM13700 48 288 R0
SYMATTR InstName U1
SYMBOL current 176 128 R0
WINDOW 123 24 108 Left 2
WINDOW 39 0 0 Left 0
SYMATTR Value2 AC 0 0
SYMATTR InstName I1
SYMATTR Value 570µ
SYMBOL voltage -288 448 R0
WINDOW 3 24 182 Left 2
WINDOW 123 24 124 Left 2
WINDOW 39 24 152 Left 2
SYMATTR Value SINE(0 1m 10k 0 0 0 100000)
SYMATTR Value2 AC 1m 0
SYMATTR SpiceLine Rser=0 Cpar=0
SYMATTR InstName V1
SYMBOL voltage 576 16 R0
WINDOW 123 0 0 Left 0
WINDOW 39 0 0 Left 0
SYMATTR InstName V2
SYMATTR Value 6
SYMBOL voltage 576 208 R0
WINDOW 123 0 0 Left 0
WINDOW 39 0 0 Left 0
SYMATTR InstName V3
SYMATTR Value 6
SYMBOL res 352 432 R0
SYMATTR InstName R1
SYMATTR Value 1K
SYMBOL cap 464 464 R0
SYMATTR InstName C1
SYMATTR Value 1µ
SYMBOL res 352 416 R90
WINDOW 0 0 56 VBottom 2
WINDOW 3 32 56 VTop 2
SYMATTR InstName R2
SYMATTR Value 1
TEXT 592 -256 Left 2 !.lib lm13700.sub
TEXT 592 -224 Left 2 !.ac dec 100 1m 1000K
TEXT -352 -208 Left 2 ;- Ultimo circuito de la guia de TP1 2021 con un polo simple arbitrario.\n- Agregue un R2 (shunt) a modo de comuto de la corriente de salida \n  para poder hacer una medición de gm.\n- Adrede, ajuste gm para que haya una ganancia de 20dB = 20 log (gm R1)\n- Agregue las siguientes trazas para visualizar una respuesta en frecuencia\n  acorde:\n  - "V(vo)/V(vi)" -> H\n  - "I(R2)/V(vi)" -> gm
