Version 4
SHEET 1 880 680
WIRE 576 32 576 0
WIRE 176 128 176 64
WIRE 576 160 576 112
WIRE 688 160 576 160
WIRE 688 192 688 160
WIRE 576 224 576 160
WIRE -16 304 -80 304
WIRE 80 304 80 64
WIRE 176 336 176 208
WIRE 240 368 208 368
WIRE 576 368 576 304
WIRE -80 432 -288 432
WIRE -16 432 -80 432
WIRE -288 464 -288 432
WIRE 80 512 80 432
WIRE -80 560 -80 432
WIRE 240 560 240 368
WIRE 240 560 -80 560
WIRE -288 576 -288 544
FLAG 176 64 Vcc
FLAG 80 64 Vcc
FLAG -80 304 0
FLAG 80 512 Vss
FLAG -288 576 0
FLAG 688 192 0
FLAG 576 0 Vcc
FLAG 576 368 Vss
SYMBOL LM13700 48 288 R0
SYMATTR InstName U1
SYMBOL current 176 128 R0
WINDOW 123 24 108 Left 2
WINDOW 39 0 0 Left 0
SYMATTR InstName I1
SYMATTR Value 442µ
SYMATTR Value2 AC 0 0
SYMBOL voltage -288 448 R0
WINDOW 3 24 182 Left 2
WINDOW 123 24 124 Left 2
WINDOW 39 24 152 Left 2
SYMATTR InstName V1
SYMATTR Value SINE(0 1m 10k 0 0 0 100000)
SYMATTR Value2 AC 1m 0
SYMATTR SpiceLine Rser=0 Cpar=0
SYMBOL voltage 576 16 R0
WINDOW 123 0 0 Left 0
WINDOW 39 0 0 Left 0
SYMATTR InstName V2
SYMATTR Value 6
SYMBOL voltage 576 208 R0
WINDOW 123 0 0 Left 0
WINDOW 39 0 0 Left 0
SYMATTR InstName V3
SYMATTR Value 6
TEXT 592 -256 Left 2 !.lib lm13700.sub
TEXT 592 -224 Left 2 !.tran 0 600m 500m 0.1m
TEXT -536 -304 Left 2 ;- Utilice la directiva ".lib lm13700.sub" para disponibilizar el modelo.\n- Agregue un LM13700 agregando un componente y seleccionando \n  su directorio para encontrar el modelo.\n- Hay algunas diferencias con el modelo que la hoja de datos propone:\n  - La hoja de datos propone gm ~ 19.2 I_{ABC}\n  - Por iteración, se obtuvo una constante de conversión 0.226 I_{ABC}.\n- Para visualizar la R_in, agregue una traza "V(V1)/I(I1)"
