Version 4
SHEET 1 880 968
WIRE 192 48 -16 48
WIRE 336 48 256 48
WIRE -224 144 -240 144
WIRE -128 144 -224 144
WIRE -16 144 -16 48
WIRE -16 144 -48 144
WIRE 0 144 -16 144
WIRE 112 144 80 144
WIRE 192 144 112 144
WIRE 336 160 336 48
WIRE 336 160 256 160
WIRE 368 160 336 160
WIRE 112 176 112 144
WIRE 192 176 176 176
WIRE -224 224 -224 144
WIRE 112 256 112 240
WIRE 176 256 176 176
WIRE 240 256 176 256
WIRE 336 256 336 160
WIRE 336 256 320 256
WIRE 176 272 176 256
WIRE 176 368 176 352
FLAG 176 368 0
FLAG 112 256 0
FLAG -240 144 Vi
IOPIN -240 144 In
FLAG 368 160 Vo
IOPIN 368 160 Out
FLAG 112 144 Va
FLAG -16 144 Vb
FLAG -224 304 0
SYMBOL OpAmps\\opamp 224 224 M180
WINDOW 0 -5 94 Left 2
SYMATTR InstName U1
SYMBOL res -32 128 R90
WINDOW 0 0 56 VBottom 2
WINDOW 3 66 56 VBottom 2
SYMATTR InstName G1
SYMATTR Value {Rref}
SYMBOL res 96 128 R90
WINDOW 0 0 56 VBottom 2
WINDOW 3 72 61 VBottom 2
SYMATTR InstName G2
SYMATTR Value {Rref}
SYMBOL res 192 368 R180
WINDOW 0 39 57 Left 2
WINDOW 3 39 29 Left 2
SYMATTR InstName Ga
SYMATTR Value {Rref}
SYMBOL res 224 272 R270
WINDOW 0 41 53 VTop 2
WINDOW 3 -32 59 VTop 2
SYMATTR InstName Gb
SYMATTR Value {Rb}
SYMBOL cap 256 32 R90
WINDOW 0 0 32 VBottom 2
WINDOW 3 62 35 VBottom 2
SYMATTR InstName C1
SYMATTR Value {Cref}
SYMBOL cap 128 240 R180
WINDOW 0 24 56 Left 2
WINDOW 3 25 6 Left 2
SYMATTR InstName C2
SYMATTR Value {Cref}
SYMBOL voltage -224 208 R0
WINDOW 123 40 55 Left 2
WINDOW 39 0 0 Left 0
WINDOW 0 41 25 Left 2
SYMATTR Value2 AC 1 1
SYMATTR InstName V1
SYMATTR Value ""
TEXT -392 632 Left 2 !#.param znorm=1 wnorm=2*pi*15.7k Cref = 1u Rref = 1/(wnorm*Cref)
TEXT -392 576 Left 3 ;Implementation
TEXT -392 768 Left 2 !.ac dec 1000 {f0/10} {f0*10}
TEXT -392 464 Left 3 ;Normalized
TEXT -392 512 Left 2 !#.param znorm=1 wnorm=2*pi Cref = 1 Rref = 1/(wnorm*Cref)
TEXT -392 712 Left 3 ;Simulation config
TEXT -392 952 Left 2 !.param Q=sqrt(2)/2 K=3-1/Q Rb = (K-1)*Rref
TEXT -392 904 Left 2 ;SOS1 Bandpass parameters
TEXT -392 816 Left 2 !.param f0=wnorm/2/pi
TEXT -392 848 Left 2 !.inc opamp.sub
