Version 4
SHEET 1 956 680
WIRE -224 112 -256 112
WIRE -80 112 -224 112
WIRE 80 112 0 112
WIRE 240 112 160 112
WIRE 400 112 240 112
WIRE -224 176 -224 112
WIRE 240 192 240 112
WIRE -224 336 -224 256
WIRE 240 336 240 256
WIRE 240 336 -224 336
WIRE 240 368 240 336
FLAG -256 112 Vi
IOPIN -256 112 In
FLAG 400 112 Vo
IOPIN 400 112 Out
FLAG 240 368 0
SYMBOL ind 64 128 R270
WINDOW 0 32 56 VTop 2
WINDOW 3 -29 66 VTop 2
SYMATTR InstName L
SYMATTR Value {L/w0}
SYMBOL cap 224 192 R0
WINDOW 3 26 54 Left 2
SYMATTR Value {C/w0}
SYMATTR InstName C
SYMBOL voltage -224 160 R0
WINDOW 3 24 96 Invisible 2
WINDOW 39 0 0 Left 0
SYMATTR Value SINE(0 1 0 0 0 0 1000)
SYMATTR InstName V1
SYMATTR Value2 AC 1 0
SYMBOL res 16 96 R90
WINDOW 0 0 56 VBottom 2
WINDOW 3 32 56 VTop 2
SYMATTR InstName R1
SYMATTR Value {R}
TEXT -128 512 Left 2 !.ac dec 1000 {f0/10} {f0*10}
TEXT 336 528 Left 2 !.step param C 0.95 1.05 .01
TEXT 336 496 Left 2 !.step param L 0.95 1.05 .01
TEXT 336 464 Left 2 !.step param R 0.95 1.05 .01
TEXT -128 480 Left 2 !.param f0=w0/2/pi
TEXT -528 552 Left 2 !.param w0=2*pi
TEXT -528 480 Left 2 !#.param w0=1
TEXT -568 432 Left 2 ;Norma de frecuencia
TEXT -536 520 Left 2 ;¿para qué serviría esta norma?
TEXT -128 432 Left 2 ;Análisis de AC (resp en frecuencia)
TEXT 336 432 Left 2 ;Análisis de la sensibilidad (Heurística)
