Version 4
SHEET 1 1432 680
WIRE 752 -256 720 -256
WIRE 832 -256 752 -256
WIRE 752 -160 752 -192
WIRE 832 -160 832 -176
WIRE 832 -160 752 -160
WIRE 832 -144 832 -160
WIRE 432 -16 304 -16
WIRE 464 -16 432 -16
WIRE 608 -16 544 -16
WIRE 432 16 432 -16
WIRE 608 32 608 -16
FLAG 32 -192 0
FLAG 608 96 0
FLAG 832 -144 0
FLAG 32 -272 vi
FLAG 720 -256 vo
FLAG 608 -16 vo
FLAG -16 -16 vi
FLAG 432 80 0
FLAG 304 128 0
FLAG -16 128 0
SYMBOL voltage 32 -288 R0
WINDOW 3 29 130 Left 2
WINDOW 123 29 158 Left 2
WINDOW 39 29 102 Left 2
WINDOW 0 39 33 Left 2
SYMATTR Value 0
SYMATTR Value2 AC 1 0
SYMATTR SpiceLine Rser={RG}
SYMATTR InstName Vg
SYMBOL res 816 -272 R0
SYMATTR InstName RL
SYMATTR Value {RL}
SYMBOL cap 592 32 R0
WINDOW 0 41 28 Left 2
WINDOW 3 43 54 Left 2
SYMATTR InstName C1
SYMATTR Value 1
SYMBOL cap 736 -256 R0
SYMATTR InstName C2
SYMATTR Value 1
SYMBOL ind 448 0 R270
WINDOW 0 32 56 VTop 2
WINDOW 3 5 56 VBottom 2
SYMATTR InstName L2
SYMATTR Value 1
SYMBOL cap 416 16 R0
WINDOW 0 41 28 Left 2
WINDOW 3 43 54 Left 2
SYMATTR InstName C3
SYMATTR Value 1
SYMBOL trafo_ideal 128 48 R0
WINDOW 39 8 -78 Bottom 2
SYMATTR InstName X1
SYMATTR SpiceLine a={a}
TEXT -40 424 Left 2 !.net I(RL) Vg
TEXT -40 392 Left 2 !.ac dec 100 .001 100
TEXT 304 -312 Left 2 ;Red
TEXT -40 -320 Left 2 ;Generador
TEXT 600 -320 Left 2 ;Carga
TEXT 296 -224 Left 1 ;Será definida \nen Python
TEXT -40 224 Left 2 ;Valores de la red (se definirá en Python)
TEXT -40 296 Left 2 !.param RG=1 RL=1/2
TEXT -56 -440 Left 2 ;Del libro de Chen Broadband matching\nEjemplo de la pag 238, fig 4.5. Butter de \n3er orden con carga RC
TEXT -40 352 Left 2 ;Valores de la simulación: Se sugiere no tocar para transferencias normalizadas.
TEXT -40 -88 Left 2 ;Red
TEXT 424 296 Left 2 !.param a = sqrt(RG/RL)
LINE Normal 288 -304 256 -304
LINE Normal 288 -192 256 -192
LINE Normal 480 -192 512 -192
LINE Normal 480 -304 512 -304
RECTANGLE Normal 480 -144 288 -336
RECTANGLE Normal 192 -144 -48 -336 2
RECTANGLE Normal 928 -112 592 -336 2
CIRCLE Normal 256 -288 224 -320
CIRCLE Normal 256 -176 224 -208
CIRCLE Normal 512 -208 544 -176
CIRCLE Normal 512 -320 544 -288
