Version 4
SHEET 1 1884 872
WIRE 240 144 208 144
WIRE 384 144 320 144
WIRE 464 144 384 144
WIRE 608 144 544 144
WIRE -368 176 -480 176
WIRE 384 192 384 144
WIRE 608 192 608 144
WIRE -368 288 -368 256
FLAG -1168 240 0
FLAG 384 256 0
FLAG -368 288 0
FLAG -1168 160 vi
FLAG -480 176 vo
FLAG 608 144 vo
FLAG 608 256 0
FLAG -112 144 vi
FLAG -112 288 0
FLAG 208 288 0
SYMBOL voltage -1168 144 R0
WINDOW 3 29 130 Left 2
WINDOW 123 29 158 Left 2
WINDOW 39 29 102 Left 2
WINDOW 0 39 33 Left 2
SYMATTR Value 0
SYMATTR Value2 AC 1 0
SYMATTR SpiceLine Rser={RG}
SYMATTR InstName Vg
SYMBOL res -384 160 R0
SYMATTR InstName RL
SYMATTR Value {RL}
SYMBOL cap 368 192 R0
WINDOW 0 41 28 Left 2
WINDOW 3 43 54 Left 2
SYMATTR InstName C1
SYMATTR Value 1.19µ
SYMBOL ind 224 160 R270
WINDOW 0 32 56 VTop 2
WINDOW 3 5 56 VBottom 2
SYMATTR InstName L2
SYMATTR Value 16.82m
SYMBOL cap 592 192 R0
WINDOW 0 41 28 Left 2
WINDOW 3 43 54 Left 2
SYMATTR InstName C2
SYMATTR Value .84µ
SYMBOL ind 448 160 R270
WINDOW 0 32 56 VTop 2
WINDOW 3 5 56 VBottom 2
SYMATTR InstName L1
SYMATTR Value 23.79m
SYMBOL trafo_ideal 32 208 R0
WINDOW 39 8 -78 Bottom 2
SYMATTR InstName X1
SYMATTR SpiceLine a = {a}
TEXT 824 208 Left 2 !.net I(RL) Vg
TEXT -896 120 Left 2 ;Red
TEXT -1240 112 Left 2 ;Generador
TEXT -600 112 Left 2 ;Carga
TEXT -904 208 Left 1 ;Será definida \nen Python
TEXT 824 -64 Left 2 ;Valores de la red (se definirá en Python)
TEXT 824 8 Left 2 !.param RG=100 RL=200
TEXT -1256 -8 Left 2 ;Del libro de Chen Passive and Active Filters (PAF)\nEjemplo de la pag 187, Ej 4.13 fig 4.26. Cheby de \n4to orden con carga RL = 2*RG
TEXT 824 64 Left 2 ;Valores de la simulación: Se sugiere no tocar para transferencias normalizadas.
TEXT -136 8 Left 2 ;Red
TEXT 1288 8 Left 2 !.param a = sqrt(RG/RL)
TEXT 824 168 Left 2 !.ac dec 100 {f_ac_min} {f_ac_max}
TEXT 824 104 Left 2 !.param wc=10**4
TEXT 824 136 Left 2 !.param f_ac_min= wc/100/2/pi f_ac_max=f_ac_min*10**4
LINE Normal -912 128 -944 128
LINE Normal -912 240 -944 240
LINE Normal -720 240 -688 240
LINE Normal -720 128 -688 128
RECTANGLE Normal -720 288 -912 96
RECTANGLE Normal -1008 288 -1248 96 2
RECTANGLE Normal -272 320 -608 96 2
CIRCLE Normal -944 144 -976 112
CIRCLE Normal -944 256 -976 224
CIRCLE Normal -688 224 -656 256
CIRCLE Normal -688 112 -656 144
