Version 4
SHEET 1 880 1328
WIRE 304 -48 192 -48
WIRE 512 -48 384 -48
WIRE 192 32 192 -48
WIRE 192 32 112 32
WIRE 304 32 192 32
WIRE 512 32 512 -48
WIRE 512 32 384 32
WIRE 592 32 512 32
WIRE 192 96 192 32
WIRE 304 96 304 32
WIRE 384 96 384 32
WIRE 512 96 512 32
WIRE 192 224 192 176
WIRE 192 224 112 224
WIRE 304 224 304 176
WIRE 304 224 192 224
WIRE 384 224 384 176
WIRE 512 224 512 176
WIRE 512 224 384 224
WIRE 592 224 512 224
WIRE 304 384 192 384
WIRE 512 384 384 384
WIRE 128 464 0 464
WIRE 192 464 192 384
WIRE 192 464 128 464
WIRE 304 464 192 464
WIRE 512 464 512 384
WIRE 512 464 384 464
WIRE 576 464 512 464
WIRE 0 528 0 464
WIRE 192 528 192 464
WIRE 304 528 304 464
WIRE 384 528 384 464
WIRE 512 528 512 464
WIRE 0 656 0 608
WIRE 128 656 0 656
WIRE 192 656 192 608
WIRE 192 656 128 656
WIRE 304 656 304 608
WIRE 304 656 192 656
WIRE 384 656 384 608
WIRE 512 656 512 608
WIRE 512 656 384 656
WIRE 576 656 512 656
WIRE 0 672 0 656
WIRE 0 0 0 0
FLAG 0 672 0
FLAG 592 32 3
FLAG 592 224 4
FLAG 112 32 1
FLAG 112 224 2
FLAG 128 464 1
FLAG 128 656 2
FLAG 576 464 3
FLAG 576 656 4
SYMBOL Misc\\EuropeanResistor 400 -64 R90
WINDOW 0 5 56 VBottom 2
WINDOW 3 27 56 Invisible 2
SYMATTR InstName Y2
SYMATTR Value 2
SYMBOL Misc\\EuropeanResistor 208 192 R180
WINDOW 0 31 76 Left 2
WINDOW 3 31 40 Invisible 2
SYMATTR InstName Y1
SYMATTR Value 1
SYMBOL Misc\\EuropeanResistor 496 192 M180
WINDOW 0 31 76 Left 2
WINDOW 3 31 40 Invisible 2
SYMATTR InstName Y3
SYMATTR Value 3
SYMBOL ind2 288 192 M180
WINDOW 0 -35 72 Invisible 2
WINDOW 3 -24 44 Invisible 2
SYMATTR InstName L1
SYMATTR Value 1
SYMATTR Type ind
SYMBOL ind2 400 80 M0
WINDOW 0 -31 34 Invisible 2
WINDOW 3 -20 67 Invisible 2
SYMATTR InstName L2
SYMATTR Value 1
SYMATTR Type ind
SYMBOL voltage 0 512 R0
WINDOW 3 24 96 Invisible 2
SYMATTR Value 0
SYMATTR InstName V2
SYMATTR Value2 AC 1 0
SYMATTR SpiceLine Rser=0
SYMBOL ind2 288 624 M180
WINDOW 0 364 82 Left 2
WINDOW 3 -24 44 Invisible 2
SYMATTR InstName L3
SYMATTR Value 1000
SYMATTR Type ind
SYMBOL ind2 400 512 M0
WINDOW 0 -280 58 Left 2
WINDOW 3 -20 67 Invisible 2
SYMATTR InstName L4
SYMATTR Value 1000
SYMATTR Type ind
SYMBOL res 176 512 R0
SYMATTR InstName R1
SYMATTR Value 1
SYMBOL res 400 368 R90
WINDOW 0 0 56 VBottom 2
WINDOW 3 32 56 VTop 2
SYMATTR InstName R2
SYMATTR Value 2
SYMBOL res 496 624 M180
WINDOW 0 36 76 Left 2
WINDOW 3 36 40 Left 2
SYMATTR InstName R3
SYMATTR Value 3
TEXT 648 496 Left 2 !K1 L1 L2 1
TEXT -8 408 Left 2 !.net I(R3) V2
TEXT 280 680 Left 2 !K2 L3 L4 1
TEXT -32 704 Left 2 !.ac dec 100 .001 100
TEXT 328 80 Left 2 ;a:1
TEXT 328 488 Left 2 ;1:1
