Version 4
SHEET 1 1284 680
WIRE 176 96 -112 96
WIRE 528 96 304 96
WIRE 592 96 528 96
WIRE -112 128 -112 96
WIRE 176 128 176 96
WIRE 304 128 304 96
WIRE 592 128 592 96
WIRE -112 240 -112 208
WIRE -80 240 -112 240
WIRE 176 240 176 208
WIRE 176 240 -80 240
WIRE 304 240 304 208
WIRE 496 240 304 240
WIRE 528 240 496 240
WIRE 592 240 592 208
WIRE 592 240 528 240
FLAG -80 240 0
FLAG 528 96 v2p
FLAG 528 240 v2n
FLAG -112 96 v1
FLAG 496 240 0
SYMBOL voltage -112 112 R0
WINDOW 0 37 26 Left 2
WINDOW 123 35 47 Left 2
WINDOW 39 35 69 Left 2
WINDOW 3 -91 218 Left 2
SYMATTR InstName V1
SYMATTR Value2 AC 1
SYMATTR SpiceLine Rser={Rg}
SYMATTR Value ""
SYMBOL res 576 112 R0
SYMATTR InstName RL
SYMATTR Value {RL}
SYMBOL ind2 192 224 R180
WINDOW 0 36 80 Left 2
WINDOW 3 36 40 Left 2
SYMATTR InstName L1
SYMATTR Value {L1}
SYMATTR Type ind
SYMBOL ind2 288 224 M180
WINDOW 0 36 80 Left 2
WINDOW 3 36 40 Left 2
SYMATTR InstName L2
SYMATTR Value {L2}
SYMATTR Type ind
TEXT -120 368 Left 2 !.param a = sqrt(Rg/RL)
TEXT -112 288 Left 2 ;Z match: Rser = a^2 * RL
TEXT -120 328 Left 2 !.param  Rg = 1 RL = 1/2
TEXT 304 344 Left 2 !.ac dec 100 {w_ac_min} {w_ac_max}
TEXT -120 -88 Left 1 ;SPICE ya tiene previsto un modelo NO ideal de transformador, en el cual se definen las \ninductancias de magnetización y el factor de acoplamiento (k). En dicho caso ya quedan\ndefinidas las relaciones de tensión/corriente (a) y relaciones de impedancias (a²). Por \nsupuesto que se pueden fijar L1 y L2 en función de "a", lo cual resulta mucho más \npráctico para el uso que daremos en TC2 a los transformadores.
TEXT -120 -128 Left 3 ;Ejemplo de uso del modelo de trafo NO ideal:
TEXT 240 384 Left 1 ;Para todo par de valores Rg/RL no nulos, se puede \nadaptar RL a Rg mediante untransformador ideal.
TEXT -120 568 Left 2 !.param k=1 L2= RL/w_min L1=L2*(a/k)**2
TEXT -120 440 Left 2 ;X_L2 = (w_min * L2)
TEXT 424 448 Left 1 ;Debe ser 100 veces \nmayor a RL a la mínima \nfrecuencia de trabajo
TEXT 176 72 Left 2 !k L1 L2 {k}
TEXT 128 40 Left 2 ;k*sqrt(L1/L2) = N1/N2 = a
TEXT 304 288 Left 2 ;Analizar al transformador como \nadaptador de impedancias
TEXT -120 480 Left 2 !.param w_min=.1m
TEXT -120 536 Left 2 !.param w_ac_min= w_min/100 w_ac_max=w_min*10**10
LINE Normal 400 448 128 448
LINE Normal 208 384 224 384
LINE Normal 208 368 208 384
LINE Normal 160 368 208 368
RECTANGLE Normal 624 512 416 432
