Version 4
SHEET 1 1268 680
WIRE 80 96 -112 96
WIRE 400 96 384 96
WIRE 528 96 400 96
WIRE 592 96 528 96
WIRE -112 128 -112 96
WIRE 592 128 592 96
WIRE -112 240 -112 208
WIRE -80 240 -112 240
WIRE 80 240 -80 240
WIRE 400 240 384 240
WIRE 496 240 400 240
WIRE 528 240 496 240
WIRE 592 240 592 208
WIRE 592 240 528 240
FLAG -80 240 0
FLAG 528 96 v2p
FLAG 528 240 v2n
FLAG -112 96 v1
FLAG 496 240 0
SYMBOL voltage -112 112 R0
WINDOW 0 37 26 Left 2
WINDOW 123 35 47 Left 2
WINDOW 39 35 69 Left 2
WINDOW 3 -91 218 Left 2
SYMATTR InstName V1
SYMATTR Value2 AC 1
SYMATTR SpiceLine Rser={Rg}
SYMATTR Value ""
SYMBOL res 576 112 R0
SYMATTR InstName RL
SYMATTR Value {RL}
SYMBOL trafo_ideal 224 160 R0
WINDOW 0 5 -110 Bottom 2
WINDOW 39 5 -82 Bottom 2
SYMATTR InstName X1
SYMATTR SpiceLine a = {a}
TEXT -120 368 Left 2 !.param a = sqrt(Rg/RL)
TEXT -112 288 Left 2 ;Z match: Rser = a^2 * RL
TEXT -120 328 Left 2 !.param  Rg = 1 RL = 1/2
TEXT -120 408 Left 2 !.ac dec 100 .001 100
TEXT -152 -32 Left 1 ;Recordar que este modelo solo define la relación entre tensiones y corrientes del primario\ny secundario. No hay inductancias de magnetización, ni constante de acoplamiento.\nSu uso es estrictamente teórico como separador de etapas y escalador de impedancias.
TEXT -152 -72 Left 3 ;Ejemplo de uso del modelo de trafo ideal:
TEXT 240 368 Left 1 ;Para todo par de valores Rg/RL no nulos, se puede \nadaptar RL a Rg mediante untransformador ideal.
LINE Normal 160 368 224 368
LINE Normal 176 368 160 368 2
