Version 4
SHEET 1 992 680
WIRE 304 64 64 64
WIRE 736 64 384 64
WIRE 0 144 -128 144
WIRE 64 144 64 64
WIRE 64 144 0 144
WIRE 208 144 64 144
WIRE 736 144 736 64
WIRE 736 144 592 144
WIRE 800 144 736 144
WIRE 208 176 208 144
WIRE 624 176 528 176
WIRE -128 208 -128 144
WIRE 64 208 64 144
WIRE 736 208 736 144
WIRE 592 320 592 144
WIRE 592 320 528 320
WIRE -128 336 -128 288
WIRE 64 336 64 288
WIRE 64 336 -128 336
WIRE 208 336 208 320
WIRE 208 336 64 336
WIRE 624 336 624 176
WIRE 736 336 736 288
WIRE 736 336 624 336
WIRE -128 352 -128 336
FLAG -128 352 0
FLAG 0 144 v1
FLAG 800 144 v2
FLAG 736 336 0
SYMBOL res 48 192 R0
SYMATTR InstName R1
SYMATTR Value 1
SYMBOL res 400 48 R90
WINDOW 0 0 56 VBottom 2
WINDOW 3 32 56 VTop 2
SYMATTR InstName R2
SYMATTR Value 2
SYMBOL trafo_ideal 352 240 R0
WINDOW 39 8 -80 Bottom 2
SYMATTR InstName T1
SYMATTR SpiceLine a=1
SYMBOL res 720 192 R0
SYMATTR InstName R3
SYMATTR Value 3
SYMBOL voltage -128 192 R0
WINDOW 123 24 122 Left 2
WINDOW 39 0 0 Left 0
SYMATTR InstName V1
SYMATTR Value ""
SYMATTR Value2 AC 1
TEXT -136 88 Left 2 !.net V(v2) V1
TEXT -160 384 Left 2 !.ac dec 100 .001 100
