Version 4
SHEET 1 908 1328
WIRE 448 320 192 320
WIRE 784 320 528 320
WIRE 128 464 0 464
WIRE 192 464 192 320
WIRE 192 464 128 464
WIRE 320 464 192 464
WIRE 784 464 784 320
WIRE 784 464 704 464
WIRE 848 464 784 464
WIRE 320 496 320 464
WIRE 736 496 640 496
WIRE 0 528 0 464
WIRE 192 528 192 464
WIRE 784 528 784 464
WIRE 704 640 704 464
WIRE 704 640 640 640
WIRE 0 656 0 608
WIRE 128 656 0 656
WIRE 192 656 192 608
WIRE 192 656 128 656
WIRE 320 656 320 640
WIRE 320 656 192 656
WIRE 736 656 736 496
WIRE 784 656 784 608
WIRE 784 656 736 656
WIRE 848 656 784 656
WIRE 0 672 0 656
WIRE 784 672 784 656
FLAG 0 672 0
FLAG 128 464 1
FLAG 128 656 2
FLAG 848 464 3
FLAG 848 656 4
FLAG 784 672 0
SYMBOL voltage 0 512 R0
WINDOW 3 24 96 Invisible 2
SYMATTR Value 0
SYMATTR InstName V1
SYMATTR Value2 AC 1 0
SYMATTR SpiceLine Rser=0
SYMBOL res 176 512 R0
SYMATTR InstName R1
SYMATTR Value 1
SYMBOL res 544 304 R90
WINDOW 0 0 56 VBottom 2
WINDOW 3 32 56 VTop 2
SYMATTR InstName R2
SYMATTR Value 2
SYMBOL res 768 624 M180
WINDOW 0 36 76 Left 2
WINDOW 3 36 40 Left 2
SYMATTR InstName R3
SYMATTR Value 3
SYMBOL trafo_ideal 464 560 R0
WINDOW 39 8 -78 Bottom 2
SYMATTR InstName X1
SYMATTR SpiceLine a = {1}
TEXT -8 776 Left 2 !.net I(R3) V1
TEXT 344 776 Left 2 !.ac dec 100 .001 100
TEXT 416 672 Left 2 ;Trafo ideal\na= N1/N2 = 1
TEXT -16 728 Left 1 ;Directiva SPICE para calcular \nparámetros de cuadripolos
TEXT 344 744 Left 1 ;Directiva SPICE para análisis AC
TEXT 296 496 Left 2 ;*
TEXT 600 520 Left 2 ;*
TEXT 376 392 Left 2 ;bornes homólogos
LINE Normal 592 416 608 512
LINE Normal 304 480 384 416
