Version 4.1
SHEET 1 2616 1448
WIRE 256 -64 160 -64
WIRE 400 -64 336 -64
WIRE 16 16 -64 16
WIRE 160 16 160 -64
WIRE 160 16 96 16
WIRE 240 16 160 16
WIRE 400 32 400 -64
WIRE 400 32 304 32
WIRE 448 32 400 32
WIRE 240 48 160 48
WIRE -64 64 -64 16
WIRE -64 64 -80 64
WIRE -64 112 -64 64
WIRE 64 112 -64 112
WIRE 160 112 160 48
WIRE 160 112 128 112
WIRE 160 144 160 112
WIRE -384 208 -384 144
WIRE 160 304 160 224
FLAG -80 64 vi
IOPIN -80 64 In
FLAG 448 32 vo
IOPIN 448 32 Out
FLAG -384 288 0
FLAG -384 144 vi
IOPIN -384 144 Out
FLAG 160 304 0
SYMBOL OpAmps\\opamp 272 -32 R0
SYMATTR InstName U1
SYMBOL res 176 240 R180
WINDOW 0 -44 83 Left 2
WINDOW 3 -87 34 Left 2
SYMATTR InstName R2
SYMATTR Value {R}
SYMBOL res 240 -48 R270
WINDOW 0 32 56 VTop 2
WINDOW 3 0 56 VBottom 2
SYMATTR InstName R5
SYMATTR Value {R}
SYMBOL voltage -384 192 R0
WINDOW 123 40 55 Left 2
WINDOW 39 0 0 Left 0
WINDOW 0 41 25 Left 2
SYMATTR Value2 AC 1 0
SYMATTR InstName V1
SYMATTR Value ""
SYMBOL res 0 32 R270
WINDOW 0 32 56 VTop 2
WINDOW 3 0 56 VBottom 2
SYMATTR InstName R1
SYMATTR Value {R}
SYMBOL cap 64 128 R270
WINDOW 0 32 32 VTop 2
WINDOW 3 0 32 VBottom 2
SYMATTR InstName C2
SYMATTR Value {C0}
TEXT -552 472 Left 2 !.inc opamp.sub
TEXT -544 512 Left 2 !.ac dec 1000 {f0/100} {f0*100}
TEXT -544 568 Left 3 ;Versión normalizada
TEXT -544 616 Left 2 !.param wnorm=2*pi*1 f0=w0/2/pi
TEXT -544 720 Left 2 !.param R=znorm C0=1/wnorm znorm=1
TEXT -552 424 Left 3 ;Configuración de la simulación
TEXT 72 480 Left 2 !.param w0=1 * wnorm
TEXT -544 680 Left 2 ;Parámetros generales
TEXT 72 432 Left 2 ;SOS parametrization
