Version 4
SHEET 1 2172 888
WIRE 384 -48 16 -48
WIRE 1008 -48 464 -48
WIRE 16 48 16 -48
WIRE 96 48 16 48
WIRE 256 48 176 48
WIRE 720 96 592 96
WIRE 16 144 16 48
WIRE 112 144 16 144
WIRE 256 144 256 48
WIRE 256 144 176 144
WIRE 800 144 800 96
WIRE 800 144 704 144
WIRE 832 144 800 144
WIRE 1008 144 1008 -48
WIRE 1008 144 912 144
WIRE 480 160 432 160
WIRE 592 160 592 96
WIRE 592 160 544 160
WIRE 640 160 592 160
WIRE -176 240 -240 240
WIRE -112 240 -176 240
WIRE 16 240 16 144
WIRE 16 240 -32 240
WIRE 112 240 16 240
WIRE 256 256 256 144
WIRE 256 256 176 256
WIRE 304 256 256 256
WIRE 432 256 432 160
WIRE 432 256 384 256
WIRE 544 256 432 256
WIRE 1008 272 1008 144
WIRE 1008 272 608 272
WIRE 1072 272 1008 272
WIRE -176 288 -176 240
FLAG 544 288 0
FLAG 112 272 0
FLAG 704 176 0
FLAG 1072 272 vo
IOPIN 1072 272 Out
FLAG -176 368 0
FLAG -240 240 vi
IOPIN -240 240 In
SYMBOL res -16 224 R90
WINDOW 0 0 56 VBottom 2
WINDOW 3 32 56 VTop 2
SYMATTR InstName R1
SYMATTR Value {R1}
SYMBOL res 192 32 R90
WINDOW 0 0 56 VBottom 2
WINDOW 3 32 56 VTop 2
SYMATTR InstName R2
SYMATTR Value {R2}
SYMBOL res 480 -64 R90
WINDOW 0 0 56 VBottom 2
WINDOW 3 32 56 VTop 2
SYMATTR InstName R3
SYMATTR Value {R3}
SYMBOL res 400 240 R90
WINDOW 0 0 56 VBottom 2
WINDOW 3 32 56 VTop 2
SYMATTR InstName R4
SYMATTR Value {R4}
SYMBOL res 816 80 R90
WINDOW 0 0 56 VBottom 2
WINDOW 3 32 56 VTop 2
SYMATTR InstName R5
SYMATTR Value {R5}
SYMBOL res 928 128 R90
WINDOW 0 0 56 VBottom 2
WINDOW 3 32 56 VTop 2
SYMATTR InstName R6
SYMATTR Value {R6}
SYMBOL cap 544 144 R90
WINDOW 0 0 32 VBottom 2
WINDOW 3 32 32 VTop 2
SYMATTR InstName C1
SYMATTR Value {C2}
SYMBOL cap 176 128 R90
WINDOW 0 0 32 VBottom 2
WINDOW 3 32 32 VTop 2
SYMATTR InstName C2
SYMATTR Value {C1}
SYMBOL OpAmps\\opamp 144 192 R0
SYMATTR InstName U1
SYMBOL OpAmps\\opamp 576 208 R0
SYMATTR InstName U2
SYMBOL OpAmps\\opamp 672 96 M0
SYMATTR InstName U3
SYMBOL voltage -176 272 R0
WINDOW 123 24 124 Left 2
WINDOW 39 0 0 Left 0
WINDOW 3 24 44 Left 2
SYMATTR Value2 AC 1
SYMATTR Value SINE()
SYMATTR InstName V1
TEXT -176 -160 Left 2 !.inc opamp.sub
TEXT -184 -120 Left 2 !.ac dec 100 {wo/2/pi/10} {wo/2/pi*10}
TEXT -264 496 Left 2 !#.param R=1 k=10 Q=3 wo=1
TEXT 144 504 Left 2 !#.param R=22e3 k=10 Q=sqrt(2)/2 wo=2*pi*10e3
TEXT -272 456 Left 3 ;Versión normalizada
TEXT 144 456 Left 3 ;Versión desnormalizada
TEXT -272 632 Left 3 ;Análisis de sensibilidad
TEXT -264 680 Left 2 !.param tol=.05
TEXT -248 728 Left 2 !#.param C1={1/R/wo} C2={1/R/wo} R1={R/k} R2={Q*R} R3={R} R4={R} R5={R} R6={R}
TEXT -264 776 Left 2 !.param C1=mc({1/R/wo},tol) C2=mc({1/R/wo},tol) R1=mc({R/10},tol) R2=mc({Q*R},tol) R3=mc({R},tol) R4=mc({R},tol) R5=mc({R},tol) R6=mc({R},tol)
TEXT -256 544 Left 2 !.param R=1 k=10 Q=sqrt(2)/2 wo=1
TEXT -232 832 Left 2 !.step param run 1 50 1
